Circuit: * E:\Arturo UTN\UTN_Arturo\Electronica Aplicada II\Draft2.asc

No AC stimulus found:
     Set the value of a current or voltage source to "AC 1."
     to make it behave as a signal generator for AC analysis.
Direct Newton iteration for .op point succeeded.

Date: Sun May 26 20:49:49 2019
Total elapsed time: 0.111 seconds.

tnom = 27
temp = 27
method = trap
totiter = 6
traniter = 0
tranpoints = 0
accept = 0
rejected = 0
matrix size = 19
fillins = 10
solver = Normal
Matrix Compiler1:      92 opcodes
Matrix Compiler2: 1.70 KB object code size
