Circuit: * E:\Arturo UTN\UTN_Arturo\Electronica Aplicada II\Draft1.asc

Direct Newton iteration for .op point succeeded.

Date: Sun May 26 13:28:02 2019
Total elapsed time: 0.046 seconds.

tnom = 27
temp = 27
method = modified trap
totiter = 566
traniter = 558
tranpoints = 280
accept = 280
rejected = 0
matrix size = 7
fillins = 0
solver = Normal
Matrix Compiler1: 446 bytes object code size  2.3/2.1/[2.1]
Matrix Compiler2: 603 bytes object code size  2.1/2.2/[2.1]

