Circuit: * E:\Arturo UTN\UTN_Arturo\Electronica Aplicada II\Draft1.asc

.OP point found by inspection.

Date: Wed May 22 18:10:43 2019
Total elapsed time: 0.060 seconds.

tnom = 27
temp = 27
method = modified trap
totiter = 2138
traniter = 2138
tranpoints = 1070
accept = 754
rejected = 316
matrix size = 3
fillins = 0
solver = Normal
Matrix Compiler1: 50 bytes object code size  3.1/3.1/[3.1]
Matrix Compiler2: 175 bytes object code size  3.0/3.1/[3.1]

